/*---------------------------------------------------------------------------*\
  =========                 |
  \\      /  F ield         | OpenFOAM: The Open Source CFD Toolbox
   \\    /   O peration     | Website:  https://openfoam.org
    \\  /    A nd           | Version:  6
     \\/     M anipulation  |
\*---------------------------------------------------------------------------*/
Build  : 6
Exec   : blockMesh -case Fluid
Date   : May 09 2019
Time   : 20:28:08
Host   : "kubac-UX430UNR"
PID    : 10989
I/O    : uncollated
Case   : ./Fluid
nProcs : 1
sigFpe : Enabling floating point exception trapping (FOAM_SIGFPE).
fileModificationChecking : Monitoring run-time modified files using timeStampMaster (fileModificationSkew 10)
allowSystemOperations : Allowing user-supplied system call operations

// * * * * * * * * * * * * * * * * * * * * * * * * * * * * * * * * * * * * * //
Create time

Deleting polyMesh directory
    "./Fluid/constant/polyMesh"
Creating block mesh from
    "./Fluid/system/blockMeshDict"
Creating block edges
No non-planar block faces defined
Creating topology blocks
Creating topology patches

Creating block mesh topology

Check topology

	Basic statistics
		Number of internal faces : 4
		Number of boundary faces : 22
		Number of defined boundary faces : 22
		Number of undefined boundary faces : 0
	Checking patch -> block consistency

Creating block offsets
Creating merge list .

Creating polyMesh from blockMesh
Creating patches
Creating cells
Creating points with scale 1
    Block 0 cell size :
        i : 0.136132 .. 0.0680662
        j : 0.0666667 .. 0.0666667
        k : 0.3 .. 0.3

    Block 1 cell size :
        i : 0.0680662 .. 0.136132
        j : 0.0666667 .. 0.0666667
        k : 0.3 .. 0.3

    Block 2 cell size :
        i : 0.136132 .. 0.0680662
        j : 0.0692199 .. 0.13844
        k : 0.3 .. 0.3

    Block 3 cell size :
        i : 0.0333333 .. 0.0333333
        j : 0.0692199 .. 0.13844
        k : 0.3 .. 0.3

    Block 4 cell size :
        i : 0.0680662 .. 0.136132
        j : 0.0692199 .. 0.13844
        k : 0.3 .. 0.3


There are no merge patch pairs edges

Writing polyMesh
----------------
Mesh Information
----------------
  boundingBox: (-3 0 0) (3 0.3 4)
  nPoints: 5828
  nCells: 2790
  nFaces: 11283
  nInternalFaces: 5457
----------------
Patches
----------------
  patch 0 (start: 5457 size: 45) name: inlet
  patch 1 (start: 5502 size: 45) name: outlet
  patch 2 (start: 5547 size: 33) name: flap
  patch 3 (start: 5580 size: 63) name: upperWall
  patch 4 (start: 5643 size: 60) name: lowerWall
  patch 5 (start: 5703 size: 5580) name: frontAndBack

End

