/*---------------------------------------------------------------------------*\
  =========                 |
  \\      /  F ield         | OpenFOAM: The Open Source CFD Toolbox
   \\    /   O peration     | Website:  https://openfoam.org
    \\  /    A nd           | Version:  6
     \\/     M anipulation  |
\*---------------------------------------------------------------------------*/
Build  : 6
Exec   : checkMesh -case Fluid
Date   : May 09 2019
Time   : 20:28:09
Host   : "kubac-UX430UNR"
PID    : 10990
I/O    : uncollated
Case   : ./Fluid
nProcs : 1
sigFpe : Enabling floating point exception trapping (FOAM_SIGFPE).
fileModificationChecking : Monitoring run-time modified files using timeStampMaster (fileModificationSkew 10)
allowSystemOperations : Allowing user-supplied system call operations

// * * * * * * * * * * * * * * * * * * * * * * * * * * * * * * * * * * * * * //
Create time

Create polyMesh for time = 0

Time = 0

Mesh stats
    points:           5828
    internal points:  0
    faces:            11283
    internal faces:   5457
    cells:            2790
    faces per cell:   6
    boundary patches: 6
    point zones:      0
    face zones:       0
    cell zones:       0

Overall number of cells of each type:
    hexahedra:     2790
    prisms:        0
    wedges:        0
    pyramids:      0
    tet wedges:    0
    tetrahedra:    0
    polyhedra:     0

Checking topology...
    Boundary definition OK.
    Cell to face addressing OK.
    Point usage OK.
    Upper triangular ordering OK.
    Face vertices OK.
    Number of regions: 1 (OK).

Checking patch topology for multiply connected surfaces...
    Patch               Faces    Points   Surface topology                  
    inlet               45       92       ok (non-closed singly connected)  
    outlet              45       92       ok (non-closed singly connected)  
    flap                33       68       ok (non-closed singly connected)  
    upperWall           63       128      ok (non-closed singly connected)  
    lowerWall           60       124      ok (non-closed singly connected)  
    frontAndBack        5580     5828     ok (non-closed singly connected)  

Checking geometry...
    Overall domain bounding box (-3 0 0) (3 0.3 4)
    Mesh has 2 geometric (non-empty/wedge) directions (1 0 1)
    Mesh has 2 solution (non-empty) directions (1 0 1)
    All edges aligned with or perpendicular to non-empty directions.
    Boundary openness (3.69904e-18 1.17655e-15 -7.01543e-18) OK.
    Max cell openness = 1.14138e-16 OK.
    Max aspect ratio = 4.15319 OK.
    Minimum face area = 0.00230733. Maximum face area = 0.0415319.  Face area magnitudes OK.
    Min volume = 0.000692199. Max volume = 0.00565384.  Total volume = 7.17.  Cell volumes OK.
    Mesh non-orthogonality Max: 0 average: 0
    Non-orthogonality check OK.
    Face pyramids OK.
    Max skewness = 2.90807e-14 OK.
    Coupled point location match (average 0) OK.

Mesh OK.

End

