/*---------------------------------------------------------------------------*\
  =========                 |
  \\      /  F ield         | OpenFOAM: The Open Source CFD Toolbox
   \\    /   O peration     | Website:  https://openfoam.org
    \\  /    A nd           | Version:  6
     \\/     M anipulation  |
\*---------------------------------------------------------------------------*/
Build  : 6
Exec   : potentialFoam -case Fluid
Date   : May 09 2019
Time   : 20:28:09
Host   : "kubac-UX430UNR"
PID    : 10991
I/O    : uncollated
Case   : ./Fluid
nProcs : 1
sigFpe : Enabling floating point exception trapping (FOAM_SIGFPE).
fileModificationChecking : Monitoring run-time modified files using timeStampMaster (fileModificationSkew 10)
allowSystemOperations : Allowing user-supplied system call operations

// * * * * * * * * * * * * * * * * * * * * * * * * * * * * * * * * * * * * * //
Create time

Create mesh for time = 0

Reading velocity field U

Constructing pressure field p

Constructing velocity potential field Phi

No MRF models present


Calculating potential flow
DICPCG:  Solving for Phi, Initial residual = 1, Final residual = 0.000898172, No Iterations 68
DICPCG:  Solving for Phi, Initial residual = 9.23635e-06, Final residual = 8.70855e-09, No Iterations 26
DICPCG:  Solving for Phi, Initial residual = 8.70863e-09, Final residual = 8.70863e-09, No Iterations 0
DICPCG:  Solving for Phi, Initial residual = 8.70863e-09, Final residual = 8.70863e-09, No Iterations 0
DICPCG:  Solving for Phi, Initial residual = 8.70863e-09, Final residual = 8.70863e-09, No Iterations 0
DICPCG:  Solving for Phi, Initial residual = 8.70863e-09, Final residual = 8.70863e-09, No Iterations 0
DICPCG:  Solving for Phi, Initial residual = 8.70863e-09, Final residual = 8.70863e-09, No Iterations 0
DICPCG:  Solving for Phi, Initial residual = 8.70863e-09, Final residual = 8.70863e-09, No Iterations 0
DICPCG:  Solving for Phi, Initial residual = 8.70863e-09, Final residual = 8.70863e-09, No Iterations 0
DICPCG:  Solving for Phi, Initial residual = 8.70863e-09, Final residual = 8.70863e-09, No Iterations 0
DICPCG:  Solving for Phi, Initial residual = 8.70863e-09, Final residual = 8.70863e-09, No Iterations 0
Continuity error = 1.41732e-06
Interpolated velocity error = 0.0017232
ExecutionTime = 0.04 s  ClockTime = 0 s

End

